* NGSPICE file created from alu_8bit.ext - technology: sky130A

* Black-box entry subcircuit for sky130_fd_sc_hd__and4b_1 abstract view
.subckt sky130_fd_sc_hd__and4b_1 A_N B C D VGND VNB VPB VPWR X
.ends

* Black-box entry subcircuit for sky130_fd_sc_hd__xnor2_1 abstract view
.subckt sky130_fd_sc_hd__xnor2_1 A B VGND VNB VPB VPWR Y
.ends

* Black-box entry subcircuit for sky130_fd_sc_hd__xor2_1 abstract view
.subckt sky130_fd_sc_hd__xor2_1 A B VGND VNB VPB VPWR X
.ends

* Black-box entry subcircuit for sky130_ef_sc_hd__decap_12 abstract view
.subckt sky130_ef_sc_hd__decap_12 VPWR VGND VPB VNB
.ends

* Black-box entry subcircuit for sky130_fd_sc_hd__nor2_1 abstract view
.subckt sky130_fd_sc_hd__nor2_1 A B VGND VNB VPB VPWR Y
.ends

* Black-box entry subcircuit for sky130_fd_sc_hd__fill_2 abstract view
.subckt sky130_fd_sc_hd__fill_2 VGND VNB VPB VPWR
.ends

* Black-box entry subcircuit for sky130_fd_sc_hd__fill_1 abstract view
.subckt sky130_fd_sc_hd__fill_1 VGND VNB VPB VPWR
.ends

* Black-box entry subcircuit for sky130_fd_sc_hd__o21ai_2 abstract view
.subckt sky130_fd_sc_hd__o21ai_2 A1 A2 B1 VGND VNB VPB VPWR Y
.ends

* Black-box entry subcircuit for sky130_fd_sc_hd__clkbuf_1 abstract view
.subckt sky130_fd_sc_hd__clkbuf_1 A VGND VNB VPB VPWR X
.ends

* Black-box entry subcircuit for sky130_fd_sc_hd__nor2_2 abstract view
.subckt sky130_fd_sc_hd__nor2_2 A B VGND VNB VPB VPWR Y
.ends

* Black-box entry subcircuit for sky130_fd_sc_hd__a22o_1 abstract view
.subckt sky130_fd_sc_hd__a22o_1 A1 A2 B1 B2 VGND VNB VPB VPWR X
.ends

* Black-box entry subcircuit for sky130_fd_sc_hd__decap_8 abstract view
.subckt sky130_fd_sc_hd__decap_8 VGND VNB VPB VPWR
.ends

* Black-box entry subcircuit for sky130_fd_sc_hd__decap_6 abstract view
.subckt sky130_fd_sc_hd__decap_6 VGND VNB VPB VPWR
.ends

* Black-box entry subcircuit for sky130_fd_sc_hd__clkbuf_4 abstract view
.subckt sky130_fd_sc_hd__clkbuf_4 A VGND VNB VPB VPWR X
.ends

* Black-box entry subcircuit for sky130_fd_sc_hd__tapvpwrvgnd_1 abstract view
.subckt sky130_fd_sc_hd__tapvpwrvgnd_1 VGND VPWR
.ends

* Black-box entry subcircuit for sky130_fd_sc_hd__and2b_1 abstract view
.subckt sky130_fd_sc_hd__and2b_1 A_N B VGND VNB VPB VPWR X
.ends

* Black-box entry subcircuit for sky130_fd_sc_hd__a21bo_1 abstract view
.subckt sky130_fd_sc_hd__a21bo_1 A1 A2 B1_N VGND VNB VPB VPWR X
.ends

* Black-box entry subcircuit for sky130_fd_sc_hd__xnor2_2 abstract view
.subckt sky130_fd_sc_hd__xnor2_2 A B VGND VNB VPB VPWR Y
.ends

* Black-box entry subcircuit for sky130_fd_sc_hd__o22a_1 abstract view
.subckt sky130_fd_sc_hd__o22a_1 A1 A2 B1 B2 VGND VNB VPB VPWR X
.ends

* Black-box entry subcircuit for sky130_fd_sc_hd__or3b_1 abstract view
.subckt sky130_fd_sc_hd__or3b_1 A B C_N VGND VNB VPB VPWR X
.ends

* Black-box entry subcircuit for sky130_fd_sc_hd__and2_1 abstract view
.subckt sky130_fd_sc_hd__and2_1 A B VGND VNB VPB VPWR X
.ends

* Black-box entry subcircuit for sky130_fd_sc_hd__decap_3 abstract view
.subckt sky130_fd_sc_hd__decap_3 VGND VNB VPB VPWR
.ends

* Black-box entry subcircuit for sky130_fd_sc_hd__a211o_1 abstract view
.subckt sky130_fd_sc_hd__a211o_1 A1 A2 B1 C1 VGND VNB VPB VPWR X
.ends

* Black-box entry subcircuit for sky130_fd_sc_hd__xor2_2 abstract view
.subckt sky130_fd_sc_hd__xor2_2 A B VGND VNB VPB VPWR X
.ends

* Black-box entry subcircuit for sky130_fd_sc_hd__o21ai_1 abstract view
.subckt sky130_fd_sc_hd__o21ai_1 A1 A2 B1 VGND VNB VPB VPWR Y
.ends

* Black-box entry subcircuit for sky130_fd_sc_hd__o2bb2a_1 abstract view
.subckt sky130_fd_sc_hd__o2bb2a_1 A1_N A2_N B1 B2 VGND VNB VPB VPWR X
.ends

* Black-box entry subcircuit for sky130_fd_sc_hd__decap_4 abstract view
.subckt sky130_fd_sc_hd__decap_4 VGND VNB VPB VPWR
.ends

* Black-box entry subcircuit for sky130_fd_sc_hd__and4_1 abstract view
.subckt sky130_fd_sc_hd__and4_1 A B C D VGND VNB VPB VPWR X
.ends

* Black-box entry subcircuit for sky130_fd_sc_hd__o211a_1 abstract view
.subckt sky130_fd_sc_hd__o211a_1 A1 A2 B1 C1 VGND VNB VPB VPWR X
.ends

* Black-box entry subcircuit for sky130_fd_sc_hd__or3_4 abstract view
.subckt sky130_fd_sc_hd__or3_4 A B C VGND VNB VPB VPWR X
.ends

* Black-box entry subcircuit for sky130_fd_sc_hd__a21o_1 abstract view
.subckt sky130_fd_sc_hd__a21o_1 A1 A2 B1 VGND VNB VPB VPWR X
.ends

* Black-box entry subcircuit for sky130_fd_sc_hd__nand3_1 abstract view
.subckt sky130_fd_sc_hd__nand3_1 A B C VGND VNB VPB VPWR Y
.ends

* Black-box entry subcircuit for sky130_fd_sc_hd__buf_6 abstract view
.subckt sky130_fd_sc_hd__buf_6 A VGND VNB VPB VPWR X
.ends

* Black-box entry subcircuit for sky130_fd_sc_hd__o21a_1 abstract view
.subckt sky130_fd_sc_hd__o21a_1 A1 A2 B1 VGND VNB VPB VPWR X
.ends

* Black-box entry subcircuit for sky130_fd_sc_hd__nand2_1 abstract view
.subckt sky130_fd_sc_hd__nand2_1 A B VGND VNB VPB VPWR Y
.ends

* Black-box entry subcircuit for sky130_fd_sc_hd__o211ai_1 abstract view
.subckt sky130_fd_sc_hd__o211ai_1 A1 A2 B1 C1 VGND VNB VPB VPWR Y
.ends

* Black-box entry subcircuit for sky130_fd_sc_hd__mux2_1 abstract view
.subckt sky130_fd_sc_hd__mux2_1 A0 A1 S VGND VNB VPB VPWR X
.ends

* Black-box entry subcircuit for sky130_fd_sc_hd__nand2_2 abstract view
.subckt sky130_fd_sc_hd__nand2_2 A B VGND VNB VPB VPWR Y
.ends

* Black-box entry subcircuit for sky130_fd_sc_hd__a31oi_1 abstract view
.subckt sky130_fd_sc_hd__a31oi_1 A1 A2 A3 B1 VGND VNB VPB VPWR Y
.ends

* Black-box entry subcircuit for sky130_fd_sc_hd__a31o_1 abstract view
.subckt sky130_fd_sc_hd__a31o_1 A1 A2 A3 B1 VGND VNB VPB VPWR X
.ends

* Black-box entry subcircuit for sky130_fd_sc_hd__inv_2 abstract view
.subckt sky130_fd_sc_hd__inv_2 A VGND VNB VPB VPWR Y
.ends

* Black-box entry subcircuit for sky130_fd_sc_hd__and3_1 abstract view
.subckt sky130_fd_sc_hd__and3_1 A B C VGND VNB VPB VPWR X
.ends

* Black-box entry subcircuit for sky130_fd_sc_hd__nand4_1 abstract view
.subckt sky130_fd_sc_hd__nand4_1 A B C D VGND VNB VPB VPWR Y
.ends

* Black-box entry subcircuit for sky130_fd_sc_hd__nor2_4 abstract view
.subckt sky130_fd_sc_hd__nor2_4 A B VGND VNB VPB VPWR Y
.ends

* Black-box entry subcircuit for sky130_fd_sc_hd__a21oi_1 abstract view
.subckt sky130_fd_sc_hd__a21oi_1 A1 A2 B1 VGND VNB VPB VPWR Y
.ends

* Black-box entry subcircuit for sky130_fd_sc_hd__or2_1 abstract view
.subckt sky130_fd_sc_hd__or2_1 A B VGND VNB VPB VPWR X
.ends

* Black-box entry subcircuit for sky130_fd_sc_hd__buf_2 abstract view
.subckt sky130_fd_sc_hd__buf_2 A VGND VNB VPB VPWR X
.ends

* Black-box entry subcircuit for sky130_fd_sc_hd__a32o_1 abstract view
.subckt sky130_fd_sc_hd__a32o_1 A1 A2 A3 B1 B2 VGND VNB VPB VPWR X
.ends

* Black-box entry subcircuit for sky130_fd_sc_hd__nand4_2 abstract view
.subckt sky130_fd_sc_hd__nand4_2 A B C D VGND VNB VPB VPWR Y
.ends

* Black-box entry subcircuit for sky130_fd_sc_hd__or3_1 abstract view
.subckt sky130_fd_sc_hd__or3_1 A B C VGND VNB VPB VPWR X
.ends

* Black-box entry subcircuit for sky130_fd_sc_hd__clkbuf_2 abstract view
.subckt sky130_fd_sc_hd__clkbuf_2 A VGND VNB VPB VPWR X
.ends

* Black-box entry subcircuit for sky130_fd_sc_hd__and4_2 abstract view
.subckt sky130_fd_sc_hd__and4_2 A B C D VGND VNB VPB VPWR X
.ends

* Black-box entry subcircuit for sky130_fd_sc_hd__nand3_2 abstract view
.subckt sky130_fd_sc_hd__nand3_2 A B C VGND VNB VPB VPWR Y
.ends

* Black-box entry subcircuit for sky130_fd_sc_hd__a311o_1 abstract view
.subckt sky130_fd_sc_hd__a311o_1 A1 A2 A3 B1 C1 VGND VNB VPB VPWR X
.ends

* Black-box entry subcircuit for sky130_fd_sc_hd__a22oi_1 abstract view
.subckt sky130_fd_sc_hd__a22oi_1 A1 A2 B1 B2 VGND VNB VPB VPWR Y
.ends

* Black-box entry subcircuit for sky130_fd_sc_hd__buf_8 abstract view
.subckt sky130_fd_sc_hd__buf_8 A VGND VNB VPB VPWR X
.ends

* Black-box entry subcircuit for sky130_fd_sc_hd__o211ai_2 abstract view
.subckt sky130_fd_sc_hd__o211ai_2 A1 A2 B1 C1 VGND VNB VPB VPWR Y
.ends

* Black-box entry subcircuit for sky130_fd_sc_hd__or2_2 abstract view
.subckt sky130_fd_sc_hd__or2_2 A B VGND VNB VPB VPWR X
.ends

* Black-box entry subcircuit for sky130_fd_sc_hd__or2b_1 abstract view
.subckt sky130_fd_sc_hd__or2b_1 A B_N VGND VNB VPB VPWR X
.ends

* Black-box entry subcircuit for sky130_fd_sc_hd__a22oi_4 abstract view
.subckt sky130_fd_sc_hd__a22oi_4 A1 A2 B1 B2 VGND VNB VPB VPWR Y
.ends

* Black-box entry subcircuit for sky130_fd_sc_hd__o32a_1 abstract view
.subckt sky130_fd_sc_hd__o32a_1 A1 A2 A3 B1 B2 VGND VNB VPB VPWR X
.ends

* Black-box entry subcircuit for sky130_fd_sc_hd__a221o_1 abstract view
.subckt sky130_fd_sc_hd__a221o_1 A1 A2 B1 B2 C1 VGND VNB VPB VPWR X
.ends

* Black-box entry subcircuit for sky130_fd_sc_hd__or3b_4 abstract view
.subckt sky130_fd_sc_hd__or3b_4 A B C_N VGND VNB VPB VPWR X
.ends

* Black-box entry subcircuit for sky130_fd_sc_hd__buf_4 abstract view
.subckt sky130_fd_sc_hd__buf_4 A VGND VNB VPB VPWR X
.ends

* Black-box entry subcircuit for sky130_fd_sc_hd__conb_1 abstract view
.subckt sky130_fd_sc_hd__conb_1 VGND VNB VPB VPWR HI LO
.ends

* Black-box entry subcircuit for sky130_fd_sc_hd__buf_1 abstract view
.subckt sky130_fd_sc_hd__buf_1 A VGND VNB VPB VPWR X
.ends

* Black-box entry subcircuit for sky130_fd_sc_hd__o21bai_1 abstract view
.subckt sky130_fd_sc_hd__o21bai_1 A1 A2 B1_N VGND VNB VPB VPWR Y
.ends

* Black-box entry subcircuit for sky130_fd_sc_hd__o31a_1 abstract view
.subckt sky130_fd_sc_hd__o31a_1 A1 A2 A3 B1 VGND VNB VPB VPWR X
.ends

* Black-box entry subcircuit for sky130_fd_sc_hd__a311oi_1 abstract view
.subckt sky130_fd_sc_hd__a311oi_1 A1 A2 A3 B1 C1 VGND VNB VPB VPWR Y
.ends

* Black-box entry subcircuit for sky130_fd_sc_hd__and3_2 abstract view
.subckt sky130_fd_sc_hd__and3_2 A B C VGND VNB VPB VPWR X
.ends

* Black-box entry subcircuit for sky130_fd_sc_hd__a21oi_2 abstract view
.subckt sky130_fd_sc_hd__a21oi_2 A1 A2 B1 VGND VNB VPB VPWR Y
.ends

* Black-box entry subcircuit for sky130_fd_sc_hd__dlygate4sd1_1 abstract view
.subckt sky130_fd_sc_hd__dlygate4sd1_1 A VGND VNB VPB VPWR X
.ends

* Black-box entry subcircuit for sky130_fd_sc_hd__and3b_1 abstract view
.subckt sky130_fd_sc_hd__and3b_1 A_N B C VGND VNB VPB VPWR X
.ends

* Black-box entry subcircuit for sky130_fd_sc_hd__nand3b_1 abstract view
.subckt sky130_fd_sc_hd__nand3b_1 A_N B C VGND VNB VPB VPWR Y
.ends

* Black-box entry subcircuit for sky130_fd_sc_hd__a21boi_2 abstract view
.subckt sky130_fd_sc_hd__a21boi_2 A1 A2 B1_N VGND VNB VPB VPWR Y
.ends

* Black-box entry subcircuit for sky130_fd_sc_hd__a2bb2o_1 abstract view
.subckt sky130_fd_sc_hd__a2bb2o_1 A1_N A2_N B1 B2 VGND VNB VPB VPWR X
.ends

* Black-box entry subcircuit for sky130_fd_sc_hd__or4bb_4 abstract view
.subckt sky130_fd_sc_hd__or4bb_4 A B C_N D_N VGND VNB VPB VPWR X
.ends

.subckt alu_8bit VGND VPWR a[0] a[1] a[2] a[3] a[4] a[5] a[6] a[7] b[0] b[1] b[2]
+ b[3] b[4] b[5] b[6] b[7] overflow sel[0] sel[1] sel[2] y[0] y[1] y[2] y[3] y[4]
+ y[5] y[6] y[7] carry
X_294_ _220_ _221_ net1 _222_ VGND VGND VPWR VPWR _223_ sky130_fd_sc_hd__and4b_1
X_363_ _032_ _041_ VGND VGND VPWR VPWR _042_ sky130_fd_sc_hd__xnor2_1
X_432_ _105_ _108_ VGND VGND VPWR VPWR _109_ sky130_fd_sc_hd__xor2_1
XFILLER_0_3_39 VPWR VGND VPWR VGND sky130_ef_sc_hd__decap_12
X_501_ _173_ _176_ VGND VGND VPWR VPWR _177_ sky130_fd_sc_hd__nor2_1
XFILLER_0_13_62 VGND VGND VPWR VPWR sky130_fd_sc_hd__fill_2
XFILLER_0_1_185 VGND VGND VPWR VPWR sky130_fd_sc_hd__fill_1
XFILLER_0_1_141 VPWR VGND VPWR VGND sky130_ef_sc_hd__decap_12
X_346_ _247_ _001_ _245_ VGND VGND VPWR VPWR _025_ sky130_fd_sc_hd__o21ai_2
XFILLER_0_18_29 VPWR VGND VPWR VGND sky130_ef_sc_hd__decap_12
X_415_ _092_ VGND VGND VPWR VPWR net25 sky130_fd_sc_hd__clkbuf_1
XFILLER_0_24_83 VGND VGND VPWR VPWR sky130_fd_sc_hd__fill_1
X_277_ net19 _185_ VGND VGND VPWR VPWR _207_ sky130_fd_sc_hd__nor2_2
XFILLER_0_4_82 VGND VGND VPWR VPWR sky130_fd_sc_hd__fill_2
X_329_ _196_ net3 net4 net9 VGND VGND VPWR VPWR _009_ sky130_fd_sc_hd__a22o_1
XFILLER_0_28_158 VGND VGND VPWR VPWR sky130_fd_sc_hd__fill_2
XFILLER_0_28_103 VGND VGND VPWR VPWR sky130_fd_sc_hd__fill_1
XFILLER_0_10_85 VGND VGND VPWR VPWR sky130_fd_sc_hd__fill_1
XFILLER_0_0_29 VGND VGND VPWR VPWR sky130_fd_sc_hd__decap_8
XFILLER_0_19_169 VGND VGND VPWR VPWR sky130_fd_sc_hd__decap_8
XFILLER_0_19_125 VPWR VGND VPWR VGND sky130_ef_sc_hd__decap_12
XFILLER_0_31_29 VGND VGND VPWR VPWR sky130_fd_sc_hd__fill_2
XFILLER_0_30_131 VGND VGND VPWR VPWR sky130_fd_sc_hd__decap_8
XFILLER_0_26_29 VGND VGND VPWR VPWR sky130_fd_sc_hd__fill_1
XFILLER_0_15_161 VGND VGND VPWR VPWR sky130_fd_sc_hd__decap_6
XFILLER_0_1_94 VPWR VGND VPWR VGND sky130_ef_sc_hd__decap_12
XFILLER_0_16_40 VPWR VGND VPWR VGND sky130_ef_sc_hd__decap_12
XFILLER_0_8_169 VGND VGND VPWR VPWR sky130_fd_sc_hd__fill_1
XFILLER_0_12_175 VGND VGND VPWR VPWR sky130_fd_sc_hd__fill_1
XFILLER_0_12_153 VPWR VGND VPWR VGND sky130_ef_sc_hd__decap_12
Xoutput20 net20 VGND VGND VPWR VPWR y[0] sky130_fd_sc_hd__clkbuf_4
XTAP_156 VGND VPWR sky130_fd_sc_hd__tapvpwrvgnd_1
XFILLER_0_27_61 VPWR VGND VPWR VGND sky130_ef_sc_hd__decap_12
XTAP_145 VGND VPWR sky130_fd_sc_hd__tapvpwrvgnd_1
XTAP_134 VGND VPWR sky130_fd_sc_hd__tapvpwrvgnd_1
XTAP_123 VGND VPWR sky130_fd_sc_hd__tapvpwrvgnd_1
XTAP_112 VGND VPWR sky130_fd_sc_hd__tapvpwrvgnd_1
XTAP_101 VGND VPWR sky130_fd_sc_hd__tapvpwrvgnd_1
X_293_ net11 VGND VGND VPWR VPWR _222_ sky130_fd_sc_hd__clkbuf_4
X_362_ _039_ _040_ VGND VGND VPWR VPWR _041_ sky130_fd_sc_hd__and2b_1
X_431_ _202_ _106_ _107_ VGND VGND VPWR VPWR _108_ sky130_fd_sc_hd__a21bo_1
X_500_ _174_ _175_ VGND VGND VPWR VPWR _176_ sky130_fd_sc_hd__xnor2_1
XFILLER_0_2_109 VGND VGND VPWR VPWR sky130_fd_sc_hd__decap_8
XFILLER_0_1_153 VPWR VGND VPWR VGND sky130_ef_sc_hd__decap_12
X_345_ net31 _023_ VGND VGND VPWR VPWR _024_ sky130_fd_sc_hd__xnor2_2
X_276_ _186_ _204_ _205_ _185_ VGND VGND VPWR VPWR _206_ sky130_fd_sc_hd__o22a_1
X_414_ _062_ _067_ _091_ VGND VGND VPWR VPWR _092_ sky130_fd_sc_hd__or3b_1
X_328_ _179_ _242_ VGND VGND VPWR VPWR _008_ sky130_fd_sc_hd__and2_1
X_259_ net2 VGND VGND VPWR VPWR _190_ sky130_fd_sc_hd__clkbuf_4
XFILLER_0_9_39 VGND VGND VPWR VPWR sky130_fd_sc_hd__fill_1
XFILLER_0_27_181 VGND VGND VPWR VPWR sky130_fd_sc_hd__decap_8
XFILLER_0_19_137 VPWR VGND VPWR VGND sky130_ef_sc_hd__decap_12
XFILLER_0_10_75 VGND VGND VPWR VPWR sky130_fd_sc_hd__fill_2
XFILLER_0_30_187 VGND VGND VPWR VPWR sky130_fd_sc_hd__decap_3
XFILLER_0_27_3 VGND VGND VPWR VPWR sky130_fd_sc_hd__decap_8
XFILLER_0_1_84 VGND VGND VPWR VPWR sky130_fd_sc_hd__decap_3
XFILLER_0_16_85 VGND VGND VPWR VPWR sky130_fd_sc_hd__fill_1
XFILLER_0_16_52 VPWR VGND VPWR VGND sky130_ef_sc_hd__decap_12
XFILLER_0_13_9 VGND VGND VPWR VPWR sky130_fd_sc_hd__fill_1
XFILLER_0_6_29 VGND VGND VPWR VPWR sky130_fd_sc_hd__fill_1
XFILLER_0_12_165 VGND VGND VPWR VPWR sky130_fd_sc_hd__fill_1
XFILLER_0_8_115 VGND VGND VPWR VPWR sky130_fd_sc_hd__decap_3
Xoutput21 net21 VGND VGND VPWR VPWR y[1] sky130_fd_sc_hd__clkbuf_4
XTAP_157 VGND VPWR sky130_fd_sc_hd__tapvpwrvgnd_1
XTAP_146 VGND VPWR sky130_fd_sc_hd__tapvpwrvgnd_1
XFILLER_0_27_84 VGND VGND VPWR VPWR sky130_fd_sc_hd__decap_8
XFILLER_0_27_73 VGND VGND VPWR VPWR sky130_fd_sc_hd__fill_1
XFILLER_0_27_51 VGND VGND VPWR VPWR sky130_fd_sc_hd__fill_1
XTAP_135 VGND VPWR sky130_fd_sc_hd__tapvpwrvgnd_1
XTAP_124 VGND VPWR sky130_fd_sc_hd__tapvpwrvgnd_1
XTAP_113 VGND VPWR sky130_fd_sc_hd__tapvpwrvgnd_1
XTAP_102 VGND VPWR sky130_fd_sc_hd__tapvpwrvgnd_1
XFILLER_0_4_151 VPWR VGND VPWR VGND sky130_ef_sc_hd__decap_12
X_292_ net2 _197_ _202_ _181_ VGND VGND VPWR VPWR _221_ sky130_fd_sc_hd__a22o_1
X_361_ _037_ _038_ _033_ _011_ VGND VGND VPWR VPWR _040_ sky130_fd_sc_hd__a211o_1
X_430_ _230_ net12 _021_ net3 VGND VGND VPWR VPWR _107_ sky130_fd_sc_hd__a22o_1
XFILLER_0_13_86 VGND VGND VPWR VPWR sky130_fd_sc_hd__fill_1
XFILLER_0_13_53 VGND VGND VPWR VPWR sky130_fd_sc_hd__decap_3
XFILLER_0_1_165 VGND VGND VPWR VPWR sky130_fd_sc_hd__decap_3
X_344_ _021_ _022_ VGND VGND VPWR VPWR _023_ sky130_fd_sc_hd__xor2_2
X_275_ _190_ _197_ _204_ VGND VGND VPWR VPWR _205_ sky130_fd_sc_hd__o21ai_1
X_413_ _045_ _089_ _090_ _199_ VGND VGND VPWR VPWR _091_ sky130_fd_sc_hd__a211o_1
XFILLER_0_24_85 VGND VGND VPWR VPWR sky130_fd_sc_hd__fill_1
XFILLER_0_4_51 VPWR VGND VPWR VGND sky130_ef_sc_hd__decap_12
XFILLER_0_29_19 VGND VGND VPWR VPWR sky130_fd_sc_hd__decap_8
XFILLER_0_28_138 VGND VGND VPWR VPWR sky130_fd_sc_hd__fill_2
XFILLER_0_19_149 VPWR VGND VPWR VGND sky130_ef_sc_hd__decap_12
XFILLER_0_19_105 VGND VGND VPWR VPWR sky130_fd_sc_hd__decap_3
XFILLER_0_19_74 VPWR VGND VPWR VGND sky130_ef_sc_hd__decap_12
X_327_ net31 _191_ _004_ net19 VGND VGND VPWR VPWR _007_ sky130_fd_sc_hd__o2bb2a_1
X_258_ _183_ _186_ _188_ _185_ VGND VGND VPWR VPWR _189_ sky130_fd_sc_hd__o22a_1
XFILLER_0_9_18 VPWR VGND VPWR VGND sky130_ef_sc_hd__decap_12
XFILLER_0_24_141 VGND VGND VPWR VPWR sky130_fd_sc_hd__fill_1
XFILLER_0_24_130 VGND VGND VPWR VPWR sky130_fd_sc_hd__fill_2
XFILLER_0_21_42 VPWR VGND VPWR VGND sky130_ef_sc_hd__decap_12
XFILLER_0_1_63 VGND VGND VPWR VPWR sky130_fd_sc_hd__fill_1
XFILLER_0_1_52 VGND VGND VPWR VPWR sky130_fd_sc_hd__decap_4
XFILLER_0_16_64 VGND VGND VPWR VPWR sky130_fd_sc_hd__fill_1
XFILLER_0_8_149 VGND VGND VPWR VPWR sky130_fd_sc_hd__decap_6
Xoutput22 net22 VGND VGND VPWR VPWR y[2] sky130_fd_sc_hd__clkbuf_4
XFILLER_0_9_3 VGND VGND VPWR VPWR sky130_fd_sc_hd__decap_8
XTAP_158 VGND VPWR sky130_fd_sc_hd__tapvpwrvgnd_1
XTAP_147 VGND VPWR sky130_fd_sc_hd__tapvpwrvgnd_1
XTAP_136 VGND VPWR sky130_fd_sc_hd__tapvpwrvgnd_1
XTAP_125 VGND VPWR sky130_fd_sc_hd__tapvpwrvgnd_1
XTAP_114 VGND VPWR sky130_fd_sc_hd__tapvpwrvgnd_1
XTAP_103 VGND VPWR sky130_fd_sc_hd__tapvpwrvgnd_1
XFILLER_0_11_7 VPWR VGND VPWR VGND sky130_ef_sc_hd__decap_12
X_291_ _181_ net2 _196_ net3 VGND VGND VPWR VPWR _220_ sky130_fd_sc_hd__and4_1
X_360_ _033_ _011_ _037_ _038_ VGND VGND VPWR VPWR _039_ sky130_fd_sc_hd__o211a_1
XFILLER_0_4_141 VGND VGND VPWR VPWR sky130_fd_sc_hd__fill_2
XFILLER_0_4_163 VPWR VGND VPWR VGND sky130_ef_sc_hd__decap_12
XFILLER_0_7_51 VGND VGND VPWR VPWR sky130_fd_sc_hd__decap_4
X_489_ _154_ _155_ _164_ VGND VGND VPWR VPWR _165_ sky130_fd_sc_hd__or3_4
X_343_ _242_ _210_ _243_ VGND VGND VPWR VPWR _022_ sky130_fd_sc_hd__a21o_1
X_274_ _187_ _190_ _197_ VGND VGND VPWR VPWR _204_ sky130_fd_sc_hd__nand3_1
X_412_ _045_ _088_ VGND VGND VPWR VPWR _090_ sky130_fd_sc_hd__nor2_1
XFILLER_0_0_7 VGND VGND VPWR VPWR sky130_fd_sc_hd__decap_8
XFILLER_0_4_41 VGND VGND VPWR VPWR sky130_fd_sc_hd__decap_4
XFILLER_0_4_63 VGND VGND VPWR VPWR sky130_fd_sc_hd__decap_6
XFILLER_0_4_74 VGND VGND VPWR VPWR sky130_fd_sc_hd__decap_8
XFILLER_0_4_85 VGND VGND VPWR VPWR sky130_fd_sc_hd__decap_6
X_326_ net5 VGND VGND VPWR VPWR _006_ sky130_fd_sc_hd__buf_6
XFILLER_0_19_86 VGND VGND VPWR VPWR sky130_fd_sc_hd__decap_4
X_257_ _184_ _187_ _182_ VGND VGND VPWR VPWR _188_ sky130_fd_sc_hd__o21a_1
XFILLER_0_10_55 VGND VGND VPWR VPWR sky130_fd_sc_hd__fill_1
XFILLER_0_27_150 VGND VGND VPWR VPWR sky130_fd_sc_hd__fill_2
X_309_ _222_ _237_ VGND VGND VPWR VPWR _238_ sky130_fd_sc_hd__xnor2_1
XFILLER_0_25_109 VGND VGND VPWR VPWR sky130_fd_sc_hd__decap_3
XFILLER_0_21_54 VGND VGND VPWR VPWR sky130_fd_sc_hd__fill_2
XFILLER_0_21_65 VGND VGND VPWR VPWR sky130_fd_sc_hd__decap_8
XFILLER_0_1_42 VGND VGND VPWR VPWR sky130_fd_sc_hd__decap_3
XFILLER_0_30_178 VGND VGND VPWR VPWR sky130_fd_sc_hd__decap_3
XFILLER_0_21_189 VGND VGND VPWR VPWR sky130_fd_sc_hd__fill_1
XFILLER_0_16_10 VPWR VGND VPWR VGND sky130_ef_sc_hd__decap_12
Xoutput23 net23 VGND VGND VPWR VPWR y[3] sky130_fd_sc_hd__clkbuf_4
XFILLER_0_7_161 VGND VGND VPWR VPWR sky130_fd_sc_hd__decap_6
XTAP_159 VGND VPWR sky130_fd_sc_hd__tapvpwrvgnd_1
XTAP_148 VGND VPWR sky130_fd_sc_hd__tapvpwrvgnd_1
XFILLER_0_27_31 VPWR VGND VPWR VGND sky130_ef_sc_hd__decap_12
XTAP_137 VGND VPWR sky130_fd_sc_hd__tapvpwrvgnd_1
XTAP_126 VGND VPWR sky130_fd_sc_hd__tapvpwrvgnd_1
XTAP_115 VGND VPWR sky130_fd_sc_hd__tapvpwrvgnd_1
XTAP_104 VGND VPWR sky130_fd_sc_hd__tapvpwrvgnd_1
XFILLER_0_5_109 VGND VGND VPWR VPWR sky130_fd_sc_hd__decap_3
XFILLER_0_4_175 VPWR VGND VPWR VGND sky130_ef_sc_hd__decap_12
X_290_ _208_ _219_ VGND VGND VPWR VPWR net21 sky130_fd_sc_hd__nand2_1
XFILLER_0_13_44 VGND VGND VPWR VPWR sky130_fd_sc_hd__fill_2
X_488_ _160_ _163_ VGND VGND VPWR VPWR _164_ sky130_fd_sc_hd__xnor2_1
XFILLER_0_1_189 VGND VGND VPWR VPWR sky130_fd_sc_hd__fill_1
X_342_ net13 VGND VGND VPWR VPWR _021_ sky130_fd_sc_hd__clkbuf_4
X_273_ _202_ _191_ _193_ _190_ VGND VGND VPWR VPWR _203_ sky130_fd_sc_hd__o2bb2a_1
X_411_ _068_ _088_ VGND VGND VPWR VPWR _089_ sky130_fd_sc_hd__xnor2_1
XFILLER_0_24_76 VGND VGND VPWR VPWR sky130_fd_sc_hd__decap_4
X_325_ _230_ _242_ _232_ _004_ VGND VGND VPWR VPWR _005_ sky130_fd_sc_hd__o211ai_1
XFILLER_0_10_89 VGND VGND VPWR VPWR sky130_fd_sc_hd__decap_8
X_256_ net17 VGND VGND VPWR VPWR _187_ sky130_fd_sc_hd__clkbuf_4
XFILLER_0_10_12 VPWR VGND VPWR VGND sky130_ef_sc_hd__decap_12
XFILLER_0_10_67 VGND VGND VPWR VPWR sky130_fd_sc_hd__fill_1
X_308_ _182_ _197_ _210_ VGND VGND VPWR VPWR _237_ sky130_fd_sc_hd__o21a_1
XFILLER_0_24_176 VGND VGND VPWR VPWR sky130_fd_sc_hd__fill_2
XFILLER_0_24_165 VGND VGND VPWR VPWR sky130_fd_sc_hd__fill_2
XFILLER_0_21_33 VGND VGND VPWR VPWR sky130_fd_sc_hd__fill_1
XFILLER_0_1_76 VGND VGND VPWR VPWR sky130_fd_sc_hd__decap_8
XFILLER_0_1_10 VPWR VGND VPWR VGND sky130_ef_sc_hd__decap_12
XFILLER_0_30_146 VPWR VGND VPWR VGND sky130_ef_sc_hd__decap_12
XFILLER_0_30_124 VGND VGND VPWR VPWR sky130_fd_sc_hd__decap_4
XFILLER_0_15_187 VGND VGND VPWR VPWR sky130_fd_sc_hd__decap_3
XFILLER_0_21_179 VGND VGND VPWR VPWR sky130_fd_sc_hd__decap_4
XFILLER_0_21_113 VGND VGND VPWR VPWR sky130_fd_sc_hd__decap_8
XFILLER_0_16_22 VGND VGND VPWR VPWR sky130_fd_sc_hd__fill_1
XFILLER_0_8_107 VGND VGND VPWR VPWR sky130_fd_sc_hd__decap_8
XFILLER_0_25_3 VPWR VGND VPWR VGND sky130_ef_sc_hd__decap_12
Xoutput24 net24 VGND VGND VPWR VPWR y[4] sky130_fd_sc_hd__clkbuf_4
XTAP_149 VGND VPWR sky130_fd_sc_hd__tapvpwrvgnd_1
XTAP_138 VGND VPWR sky130_fd_sc_hd__tapvpwrvgnd_1
XTAP_127 VGND VPWR sky130_fd_sc_hd__tapvpwrvgnd_1
XTAP_116 VGND VPWR sky130_fd_sc_hd__tapvpwrvgnd_1
XTAP_105 VGND VPWR sky130_fd_sc_hd__tapvpwrvgnd_1
XFILLER_0_27_43 VGND VGND VPWR VPWR sky130_fd_sc_hd__decap_8
XFILLER_0_4_187 VGND VGND VPWR VPWR sky130_fd_sc_hd__decap_3
XFILLER_0_7_75 VPWR VGND VPWR VGND sky130_ef_sc_hd__decap_12
XFILLER_0_13_78 VGND VGND VPWR VPWR sky130_fd_sc_hd__decap_8
XFILLER_0_13_34 VGND VGND VPWR VPWR sky130_fd_sc_hd__fill_2
XFILLER_0_1_113 VPWR VGND VPWR VGND sky130_ef_sc_hd__decap_12
X_487_ _161_ _162_ _121_ VGND VGND VPWR VPWR _163_ sky130_fd_sc_hd__mux2_1
X_341_ _002_ _003_ _020_ VGND VGND VPWR VPWR net23 sky130_fd_sc_hd__o21ai_1
X_272_ net3 VGND VGND VPWR VPWR _202_ sky130_fd_sc_hd__clkbuf_4
X_410_ _031_ _087_ VGND VGND VPWR VPWR _088_ sky130_fd_sc_hd__xnor2_2
XFILLER_0_4_98 VGND VGND VPWR VPWR sky130_fd_sc_hd__fill_2
X_324_ _187_ _230_ _242_ VGND VGND VPWR VPWR _004_ sky130_fd_sc_hd__nand3_1
X_255_ _184_ _185_ VGND VGND VPWR VPWR _186_ sky130_fd_sc_hd__nand2_2
XFILLER_0_10_24 VGND VGND VPWR VPWR sky130_fd_sc_hd__decap_4
XFILLER_0_10_35 VPWR VGND VPWR VGND sky130_ef_sc_hd__decap_12
XFILLER_0_19_55 VGND VGND VPWR VPWR sky130_fd_sc_hd__fill_1
XFILLER_0_18_141 VPWR VGND VPWR VGND sky130_ef_sc_hd__decap_12
XFILLER_0_24_188 VGND VGND VPWR VPWR sky130_fd_sc_hd__fill_2
XFILLER_0_24_122 VGND VGND VPWR VPWR sky130_fd_sc_hd__fill_2
X_307_ _202_ _193_ _231_ _235_ VGND VGND VPWR VPWR _236_ sky130_fd_sc_hd__o211a_1
XFILLER_0_1_22 VPWR VGND VPWR VGND sky130_ef_sc_hd__decap_12
XFILLER_0_30_158 VGND VGND VPWR VPWR sky130_fd_sc_hd__decap_4
XFILLER_0_30_103 VGND VGND VPWR VPWR sky130_fd_sc_hd__decap_6
XFILLER_0_15_111 VGND VGND VPWR VPWR sky130_fd_sc_hd__fill_1
XFILLER_0_21_169 VGND VGND VPWR VPWR sky130_fd_sc_hd__fill_1
XFILLER_0_21_136 VPWR VGND VPWR VGND sky130_ef_sc_hd__decap_12
XFILLER_0_16_78 VGND VGND VPWR VPWR sky130_fd_sc_hd__fill_2
XFILLER_0_18_3 VPWR VGND VPWR VGND sky130_ef_sc_hd__decap_12
XFILLER_0_12_169 VGND VGND VPWR VPWR sky130_fd_sc_hd__decap_6
Xoutput25 net25 VGND VGND VPWR VPWR y[5] sky130_fd_sc_hd__clkbuf_4
XFILLER_0_27_55 VGND VGND VPWR VPWR sky130_fd_sc_hd__fill_1
XFILLER_0_27_11 VGND VGND VPWR VPWR sky130_fd_sc_hd__fill_2
XTAP_139 VGND VPWR sky130_fd_sc_hd__tapvpwrvgnd_1
XTAP_128 VGND VPWR sky130_fd_sc_hd__tapvpwrvgnd_1
XTAP_117 VGND VPWR sky130_fd_sc_hd__tapvpwrvgnd_1
XTAP_106 VGND VPWR sky130_fd_sc_hd__tapvpwrvgnd_1
XPHY_0 VGND VGND VPWR VPWR sky130_fd_sc_hd__decap_3
XFILLER_0_7_87 VPWR VGND VPWR VGND sky130_ef_sc_hd__decap_12
XFILLER_0_7_3 VPWR VGND VPWR VGND sky130_ef_sc_hd__decap_12
XFILLER_0_13_57 VGND VGND VPWR VPWR sky130_fd_sc_hd__fill_1
XFILLER_0_13_13 VGND VGND VPWR VPWR sky130_fd_sc_hd__decap_3
XFILLER_0_1_169 VPWR VGND VPWR VGND sky130_ef_sc_hd__decap_12
XFILLER_0_1_136 VGND VGND VPWR VPWR sky130_fd_sc_hd__fill_2
XFILLER_0_1_125 VGND VGND VPWR VPWR sky130_fd_sc_hd__decap_4
X_486_ _104_ _121_ net34 _161_ VGND VGND VPWR VPWR _162_ sky130_fd_sc_hd__a31oi_1
X_271_ _198_ _199_ _200_ VGND VGND VPWR VPWR _201_ sky130_fd_sc_hd__or3b_1
X_340_ _005_ _007_ _019_ _207_ VGND VGND VPWR VPWR _020_ sky130_fd_sc_hd__a31o_1
X_469_ _143_ _144_ VGND VGND VPWR VPWR _145_ sky130_fd_sc_hd__xor2_1
X_323_ _247_ _001_ _218_ VGND VGND VPWR VPWR _003_ sky130_fd_sc_hd__a21o_1
X_254_ net18 VGND VGND VPWR VPWR _185_ sky130_fd_sc_hd__clkbuf_4
XFILLER_0_27_142 VGND VGND VPWR VPWR sky130_fd_sc_hd__fill_1
XFILLER_0_10_47 VGND VGND VPWR VPWR sky130_fd_sc_hd__decap_8
XFILLER_0_18_175 VGND VGND VPWR VPWR sky130_fd_sc_hd__decap_4
XFILLER_0_18_153 VPWR VGND VPWR VGND sky130_ef_sc_hd__decap_12
XFILLER_0_21_57 VGND VGND VPWR VPWR sky130_fd_sc_hd__fill_1
X_306_ _233_ net19 _234_ VGND VGND VPWR VPWR _235_ sky130_fd_sc_hd__mux2_1
XFILLER_0_15_167 VGND VGND VPWR VPWR sky130_fd_sc_hd__fill_1
XFILLER_0_1_34 VGND VGND VPWR VPWR sky130_fd_sc_hd__decap_4
XFILLER_0_21_148 VGND VGND VPWR VPWR sky130_fd_sc_hd__decap_3
XFILLER_0_21_104 VGND VGND VPWR VPWR sky130_fd_sc_hd__decap_8
XFILLER_0_12_126 VPWR VGND VPWR VGND sky130_ef_sc_hd__decap_12
Xoutput26 net26 VGND VGND VPWR VPWR y[6] sky130_fd_sc_hd__clkbuf_4
XTAP_129 VGND VPWR sky130_fd_sc_hd__tapvpwrvgnd_1
XTAP_118 VGND VPWR sky130_fd_sc_hd__tapvpwrvgnd_1
XTAP_107 VGND VPWR sky130_fd_sc_hd__tapvpwrvgnd_1
XPHY_1 VGND VGND VPWR VPWR sky130_fd_sc_hd__decap_3
XFILLER_0_30_3 VGND VGND VPWR VPWR sky130_fd_sc_hd__fill_1
XFILLER_0_7_55 VGND VGND VPWR VPWR sky130_fd_sc_hd__fill_1
XFILLER_0_7_99 VPWR VGND VPWR VGND sky130_ef_sc_hd__decap_12
X_485_ _070_ _102_ _179_ net15 VGND VGND VPWR VPWR _161_ sky130_fd_sc_hd__o211a_1
X_270_ _182_ _190_ _197_ _179_ VGND VGND VPWR VPWR _200_ sky130_fd_sc_hd__a22o_1
X_399_ _074_ _075_ _076_ VGND VGND VPWR VPWR _077_ sky130_fd_sc_hd__nand3_1
X_468_ _230_ _021_ VGND VGND VPWR VPWR _144_ sky130_fd_sc_hd__nand2_1
X_322_ _247_ _001_ VGND VGND VPWR VPWR _002_ sky130_fd_sc_hd__nor2_1
XFILLER_0_19_57 VPWR VGND VPWR VGND sky130_ef_sc_hd__decap_12
XFILLER_0_19_35 VPWR VGND VPWR VGND sky130_ef_sc_hd__decap_12
X_253_ net19 VGND VGND VPWR VPWR _184_ sky130_fd_sc_hd__inv_2
XFILLER_0_10_59 VGND VGND VPWR VPWR sky130_fd_sc_hd__decap_8
XFILLER_0_18_187 VGND VGND VPWR VPWR sky130_fd_sc_hd__decap_3
XFILLER_0_18_165 VGND VGND VPWR VPWR sky130_fd_sc_hd__decap_3
XFILLER_0_18_121 VGND VGND VPWR VPWR sky130_fd_sc_hd__fill_2
XFILLER_0_24_157 VGND VGND VPWR VPWR sky130_fd_sc_hd__decap_8
XFILLER_0_24_113 VGND VGND VPWR VPWR sky130_fd_sc_hd__fill_1
X_305_ _187_ _202_ _222_ VGND VGND VPWR VPWR _234_ sky130_fd_sc_hd__and3_1
XFILLER_0_30_116 VGND VGND VPWR VPWR sky130_fd_sc_hd__fill_2
XFILLER_0_15_113 VPWR VGND VPWR VGND sky130_ef_sc_hd__decap_12
XFILLER_0_1_57 VGND VGND VPWR VPWR sky130_fd_sc_hd__decap_6
XFILLER_0_12_138 VGND VGND VPWR VPWR sky130_fd_sc_hd__fill_2
Xoutput27 net27 VGND VGND VPWR VPWR y[7] sky130_fd_sc_hd__buf_6
XFILLER_0_7_176 VPWR VGND VPWR VGND sky130_ef_sc_hd__decap_12
XFILLER_0_27_79 VGND VGND VPWR VPWR sky130_fd_sc_hd__fill_2
XFILLER_0_27_57 VGND VGND VPWR VPWR sky130_fd_sc_hd__fill_1
XTAP_119 VGND VPWR sky130_fd_sc_hd__tapvpwrvgnd_1
XTAP_108 VGND VPWR sky130_fd_sc_hd__tapvpwrvgnd_1
XPHY_2 VGND VGND VPWR VPWR sky130_fd_sc_hd__decap_3
XFILLER_0_23_3 VGND VGND VPWR VPWR sky130_fd_sc_hd__fill_1
X_484_ _158_ _159_ VGND VGND VPWR VPWR _160_ sky130_fd_sc_hd__xnor2_1
XFILLER_0_24_69 VGND VGND VPWR VPWR sky130_fd_sc_hd__fill_2
XFILLER_0_24_25 VGND VGND VPWR VPWR sky130_fd_sc_hd__decap_3
X_398_ _181_ _196_ _006_ net6 VGND VGND VPWR VPWR _076_ sky130_fd_sc_hd__nand4_1
X_467_ _242_ _006_ VGND VGND VPWR VPWR _143_ sky130_fd_sc_hd__nand2_1
X_321_ _239_ _240_ _000_ VGND VGND VPWR VPWR _001_ sky130_fd_sc_hd__o21a_1
XFILLER_0_19_69 VGND VGND VPWR VPWR sky130_fd_sc_hd__fill_1
XFILLER_0_19_47 VGND VGND VPWR VPWR sky130_fd_sc_hd__decap_8
X_252_ _182_ VGND VGND VPWR VPWR _183_ sky130_fd_sc_hd__inv_2
XFILLER_0_27_166 VGND VGND VPWR VPWR sky130_fd_sc_hd__fill_2
XFILLER_0_25_90 VGND VGND VPWR VPWR sky130_fd_sc_hd__decap_4
XFILLER_0_21_15 VPWR VGND VPWR VGND sky130_ef_sc_hd__decap_12
X_304_ _202_ _222_ _232_ VGND VGND VPWR VPWR _233_ sky130_fd_sc_hd__o21ai_1
XFILLER_0_15_169 VGND VGND VPWR VPWR sky130_fd_sc_hd__decap_8
XFILLER_0_15_125 VPWR VGND VPWR VGND sky130_ef_sc_hd__decap_12
XFILLER_0_11_81 VPWR VGND VPWR VGND sky130_ef_sc_hd__decap_12
XFILLER_0_30_139 VGND VGND VPWR VPWR sky130_fd_sc_hd__fill_1
XFILLER_0_14_180 VGND VGND VPWR VPWR sky130_fd_sc_hd__fill_2
XFILLER_0_20_172 VGND VGND VPWR VPWR sky130_fd_sc_hd__fill_1
XFILLER_0_12_117 VGND VGND VPWR VPWR sky130_fd_sc_hd__fill_2
XFILLER_0_7_111 VGND VGND VPWR VPWR sky130_fd_sc_hd__fill_1
XFILLER_0_7_188 VGND VGND VPWR VPWR sky130_fd_sc_hd__fill_2
XTAP_109 VGND VPWR sky130_fd_sc_hd__tapvpwrvgnd_1
XFILLER_0_16_3 VGND VGND VPWR VPWR sky130_fd_sc_hd__fill_1
XPHY_3 VGND VGND VPWR VPWR sky130_fd_sc_hd__decap_3
XFILLER_0_4_103 VPWR VGND VPWR VGND sky130_ef_sc_hd__decap_12
XFILLER_0_4_125 VPWR VGND VPWR VGND sky130_ef_sc_hd__decap_12
XFILLER_0_7_57 VPWR VGND VPWR VGND sky130_ef_sc_hd__decap_12
XFILLER_0_13_27 VGND VGND VPWR VPWR sky130_fd_sc_hd__decap_3
X_483_ _179_ net16 VGND VGND VPWR VPWR _159_ sky130_fd_sc_hd__nand2_1